Version 4.1
SHEET 1 1992 848
WIRE 80 -208 -224 -208
WIRE 352 -208 80 -208
WIRE 544 -208 352 -208
WIRE 752 -208 544 -208
WIRE 832 -208 752 -208
WIRE 928 -208 832 -208
WIRE 1136 -208 1024 -208
WIRE 1264 -208 1136 -208
WIRE 1424 -208 1264 -208
WIRE 544 -144 544 -208
WIRE 752 -144 752 -208
WIRE 832 -144 832 -208
WIRE 1136 -144 1136 -208
WIRE 1616 -48 1536 -48
WIRE 752 -16 752 -64
WIRE 832 -16 832 -80
WIRE 832 -16 752 -16
WIRE 944 -16 944 -160
WIRE 944 -16 832 -16
WIRE 1136 -16 1136 -80
WIRE 1424 -16 1424 -208
WIRE 1616 -16 1616 -48
WIRE 1536 0 1536 -48
WIRE 1536 0 1472 0
WIRE 1536 48 1472 48
WIRE 80 64 80 -208
WIRE 944 64 944 -16
WIRE 1536 96 1536 48
WIRE 1616 96 1616 64
WIRE 1616 96 1536 96
WIRE 1264 128 1264 -208
WIRE 1424 128 1424 64
WIRE 1616 128 1616 96
WIRE 352 144 352 -208
WIRE 80 176 80 144
WIRE 192 176 80 176
WIRE -224 208 -224 -208
WIRE 192 208 192 176
WIRE 256 208 192 208
WIRE 544 208 544 -64
WIRE 544 208 464 208
WIRE 80 224 80 176
WIRE 944 224 944 144
WIRE 256 304 192 304
WIRE 544 304 544 208
WIRE 544 304 464 304
WIRE 896 304 544 304
WIRE 80 336 80 304
WIRE 192 336 192 304
WIRE 192 336 80 336
WIRE 80 384 80 336
WIRE 1264 432 1264 208
WIRE 1424 432 1424 208
WIRE 1424 432 1264 432
WIRE -224 544 -224 288
WIRE 80 544 80 464
WIRE 80 544 -224 544
WIRE 352 544 352 416
WIRE 352 544 80 544
WIRE 944 576 944 320
WIRE 1264 576 1264 432
WIRE 80 624 80 544
FLAG 80 624 0
FLAG 1264 576 0
FLAG 944 576 0
FLAG 1136 -16 0
FLAG 1616 128 0
SYMBOL res 64 48 R0
SYMATTR InstName R1
SYMATTR Value 2000
SYMBOL res 64 208 R0
SYMATTR InstName R2
SYMATTR Value 100
SYMBOL res 64 368 R0
SYMATTR InstName R3
SYMATTR Value 220
SYMBOL res 528 -160 R0
SYMATTR InstName R4
SYMATTR Value 50k
SYMBOL voltage -224 192 R0
WINDOW 123 0 0 Left 0
WINDOW 39 0 0 Left 0
SYMATTR InstName V1
SYMATTR Value SINE(3.6 0.9 1)
SYMBOL res 1248 112 R0
SYMATTR InstName R5
SYMATTR Value 50
SYMBOL res 736 -160 R0
SYMATTR InstName R6
SYMATTR Value 50k
SYMBOL Contrib\\Toshiba\\lvmos\\T2N7002BK_G0_00 896 224 R0
SYMATTR InstName U3
SYMATTR Value irlml2502
SYMBOL cap 816 -144 R0
SYMATTR InstName C1
SYMATTR Value 100n
SYMBOL res 928 48 R0
SYMATTR InstName R7
SYMATTR Value 50k
SYMBOL sw 1424 80 R180
SYMATTR InstName S1
SYMBOL res 1408 112 R0
SYMATTR InstName R8
SYMATTR Value 50
SYMBOL voltage 1616 -32 R0
WINDOW 123 0 0 Left 0
WINDOW 39 0 0 Left 0
SYMATTR InstName V2
SYMATTR Value PULSE(0 1 1 0.01 0.01 0.25 1)
SYMBOL cap 1120 -144 R0
SYMATTR InstName C2
SYMATTR Value 10µ
SYMBOL Contrib\\Toshiba\\pmos\\SSM6J503NU 1024 -160 M270
SYMATTR InstName U2
SYMATTR SpiceModel irlml6402
SYMBOL lib\\sym\\TPS3700_TRANS 272 320 R0
WINDOW 3 195 108 Top 2
SYMATTR InstName U1
TEXT -232 712 Left 2 !.lib .\\lib\\sub\\TPS3700_TRANS.lib
TEXT -224 680 Left 2 !.tran 0 5 0.01 1000
TEXT -232 832 Left 2 !.model sw SW(Ron=.1 Roff=100Meg Vt=0.1 Vh=0)
TEXT -232 752 Left 2 !.lib .\\lib\\sub\\irlml6402.lib
TEXT -232 792 Left 2 !.lib .\\lib\\sub\\irlml2502.lib
